LAMMPS (23 Jun 2022 - Update 4)
#area fraction
# 0.85 is in the liquid state at T=1
# 0.90 is a crystalline solid)
variable afrac  equal 1.00

#number of particles in 20x20 area
variable npart  equal 1*20

#temperature (in reduced units)
#variable temp_start equal 2		#The temperature the simulation #starts in (high so samples are independent).
#variable temp_end   equal 2	#The temparture the simulation ends in and #which is sampled.
 variable iter   equal 1
 variable Pres   equal 0.5

#we use the LJ potential epsilon as energy scale,
#and sigma as length scale.
units		lj
dimension 2
atom_style	sphere
boundary        p p p
neighbor        0.5   bin
neigh_modify    every 1 delay 0 check yes

#read_restart restart_cooled
# create 2D box
region box block -10.0 10.0 -10.0 10.0 -0.1 0.1
create_box 4 box
Created orthogonal box = (-10 -10 -0.1) to (10 10 0.1)

#put z=0 all the time
fix 2d  all enforce2d

comm_modify vel yes

#put the particles randomly into the box
create_atoms 1 random 20 733620 NULL
Created 20 atoms
create_atoms 2 random 20 528137 NULL
Created 20 atoms
create_atoms 3 random 20 490345 NULL
Created 20 atoms
create_atoms 4 random 20 393114 NULL
Created 20 atoms

# create groups named size1 to size4 of 4 types of atoms defined above
group size1 type 1
20 atoms in group size1
group size2 type 2
20 atoms in group size2
group size3 type 3
20 atoms in group size3
group size4 type 4
20 atoms in group size4

# sets the sizes of atoms within the defined groups
# why these particular sizes where choosen? do they correspond to real-world systems?
set group size1 diameter 1.60
Setting atom values ...
  20 settings made for diameter
set group size2 diameter 1.30
Setting atom values ...
  20 settings made for diameter
set group size3 diameter 1.00
Setting atom values ...
  20 settings made for diameter
set group size4 diameter 0.70
Setting atom values ...
  20 settings made for diameter

#Define Soft granualr potential forces (as done in Reid paper).
pair_style gran/hooke 1.0 0.0 0.0 0.0 0.0 0
pair_coeff * *

#minimize energy first to avoid overlapping particles
minimize 1e-10 1e-10 1000 1000
Generated 0 of 6 mixed pair_coeff terms from geometric mixing rule
  update every 1 steps, delay 0 steps, check yes
Step          Temp          E_pair         E_mol          TotEng         Press
0   0              0              0              0              0.011434745
Loop time of 0.000140513 on 1 procs for 1 steps with 80 atoms

Minimization stats:
  Stopping criterion = linesearch alpha is zero
  Energy initial, next-to-last, final =
  Force two-norm initial, final = 4.0496081 4.0496081
  Force max component initial, final = 1.0695801 1.0695801
  Final line search alpha, max atom move = 4.4581716e-08 4.7683716e-08
  Iterations, force evaluations = 1 22

reset_timestep 0

fix 10 all npt/sphere temp 0.025 0.001 6.0 iso 0.1 0.1 0.6 disc

#output time step, temperature, average kinetic and potential energy
thermo_style custom step temp  ke pe
thermo		100
dump            1 all atom 10 traj.lmpstrj.1

#time step of integrator
timestep	0.006

#number of integration steps to run
run		10000
Generated 0 of 6 mixed pair_coeff terms from geometric mixing rule
Step          Temp          KinEng         PotEng
0   0              0              0
Averages over the last 51 of 101 rows, steps 5000 to 10000:
Temp KinEng PotEng
0.0135088 0.01334 0
Loop time of 0.238354 on 1 procs for 10000 steps with 80 atoms

write_data coord.dat
System init for write_data ...
Generated 0 of 6 mixed pair_coeff terms from geometric mixing rule
